1658596712.807469s 1 https://api.dandiarchive.org/api/zarr/2f7a16ce-7350-4155-8044-d0f3a7451805.zarr/0/0/0/14/15/99
1658596712.79731s 1 https://dandiarchive.s3.amazonaws.com/zarr/2f7a16ce-7350-4155-8044-d0f3a7451805/0/0/0/14/15/99?versionId=FyEhjCLNsWZr7IDtPyrGyrb_5MI.MT3D
